# File generated by Flopy version 3.3.2 on 12/27/2020 at 18:00:04.
BEGIN options
  BUDGET  FILEOUT  mf6model.cbc
  HEAD  FILEOUT  mf6model.hds
END options

BEGIN period  1
  SAVE  HEAD  ALL
  SAVE  BUDGET  ALL
  PRINT  BUDGET  ALL
END period  1

