# File generated by Flopy version 3.3.2 on 12/27/2020 at 18:00:03.
BEGIN options
  SAVE_FLOWS
END options

BEGIN dimensions
  MAXBOUND  2744
END dimensions

BEGIN period  1
  1 1 92     596.79907227  1.15700000E-04     595.79907227
  1 2 91     592.54382324  1.15700000E-04     591.54382324
  1 2 92     594.85900879  1.15700000E-04     593.85900879
  1 2 93     593.50054932  1.15700000E-04     592.50054932
  1 2 94     616.85284424  1.15700000E-04     615.85284424
  1 3 93     588.14086914  1.15700000E-04     587.14086914
  1 3 94     597.20941162  1.15700000E-04     596.20941162
  1 4 93     583.38531494  1.15700000E-04     582.38531494
  1 4 94     586.62823486  1.15700000E-04     585.62823486
  1 5 93     587.65386963  1.15700000E-04     586.65386963
  1 5 94     594.28295898  1.15700000E-04     593.28295898
  1 6 93     595.16894531  1.15700000E-04     594.16894531
  1 6 94     591.80035400  1.15700000E-04     590.80035400
  1 7 93     595.25012207  1.15700000E-04     594.25012207
  1 7 94     594.60693359  1.15700000E-04     593.60693359
  1 8 93     596.12994385  1.15700000E-04     595.12994385
  1 8 94     598.48657227  1.15700000E-04     597.48657227
  1 9 93     596.78363037  1.15700000E-04     595.78363037
  1 9 94     596.54199219  1.15700000E-04     595.54199219
  1 10 93     598.15692139  1.15700000E-04     597.15692139
  1 10 94     596.77227783  1.15700000E-04     595.77227783
  1 10 95     599.52905273  1.15700000E-04     598.52905273
  1 10 101     597.94897461  1.15700000E-04     596.94897461
  1 10 102     595.61840820  1.15700000E-04     594.61840820
  1 10 103     598.16790771  1.15700000E-04     597.16790771
  1 11 93     596.56616211  1.15700000E-04     595.56616211
  1 11 94     595.25036621  1.15700000E-04     594.25036621
  1 11 95     593.34057617  1.15700000E-04     592.34057617
  1 11 100     602.51745605  1.15700000E-04     601.51745605
  1 11 101     609.35211182  1.15700000E-04     608.35211182
  1 11 102     602.61822510  1.15700000E-04     601.61822510
  1 11 103     594.39886475  1.15700000E-04     593.39886475
  1 11 104     634.07611084  1.15700000E-04     633.07611084
  1 12 94     594.47717285  1.15700000E-04     593.47717285
  1 12 95     590.11468506  1.15700000E-04     589.11468506
  1 12 96     591.45416260  1.15700000E-04     590.45416260
  1 12 97     594.87341309  1.15700000E-04     593.87341309
  1 12 98     595.85882568  1.15700000E-04     594.85882568
  1 12 99     604.37585449  1.15700000E-04     603.37585449
  1 12 100     615.18798828  1.15700000E-04     614.18798828
  1 12 101     633.95739746  1.15700000E-04     632.95739746
  1 12 103     593.29876709  1.15700000E-04     592.29876709
  1 12 104     605.77392578  1.15700000E-04     604.77392578
  1 13 94     603.09252930  1.15700000E-04     602.09252930
  1 13 95     598.11853027  1.15700000E-04     597.11853027
  1 13 96     607.48382568  1.15700000E-04     606.48382568
  1 13 97     617.51940918  1.15700000E-04     616.51940918
  1 13 98     629.22949219  1.15700000E-04     628.22949219
  1 13 99     647.55950928  1.15700000E-04     646.55950928
  1 13 103     595.20391846  1.15700000E-04     594.20391846
  1 13 104     593.24920654  1.15700000E-04     592.24920654
  1 14 102     601.33026123  1.15700000E-04     600.33026123
  1 14 103     602.96679688  1.15700000E-04     601.96679688
  1 14 104     593.87683105  1.15700000E-04     592.87683105
  1 15 102     595.00384521  1.15700000E-04     594.00384521
  1 15 103     616.18988037  1.15700000E-04     615.18988037
  1 15 104     617.38806152  1.15700000E-04     616.38806152
  1 15 105     570.58868408  1.15700000E-04     569.58868408
  1 15 106     561.01361084  1.15700000E-04     560.01361084
  1 15 111     466.92932129  1.15700000E-04     465.92932129
  1 15 112     466.15478516  1.15700000E-04     465.15478516
  1 15 113     466.19555664  1.15700000E-04     465.19555664
  1 15 114     477.15124512  1.15700000E-04     476.15124512
  1 15 115     493.89236450  1.15700000E-04     492.89236450
  1 15 116     497.90530396  1.15700000E-04     496.90530396
  1 15 117     507.88702393  1.15700000E-04     506.88702393
  1 15 118     516.44909668  1.15700000E-04     515.44909668
  1 16 102     596.10260010  1.15700000E-04     595.10260010
  1 16 103     618.71038818  1.15700000E-04     617.71038818
  1 16 105     569.11004639  1.15700000E-04     568.11004639
  1 16 106     539.91540527  1.15700000E-04     538.91540527
  1 16 107     516.19158936  1.15700000E-04     515.19158936
  1 16 108     498.46005249  1.15700000E-04     497.46005249
  1 16 109     477.41757202  1.15700000E-04     476.41757202
  1 16 110     482.23440552  1.15700000E-04     481.23440552
  1 16 111     480.09521484  1.15700000E-04     479.09521484
  1 16 112     470.70596313  1.15700000E-04     469.70596313
  1 16 113     452.81536865  1.15700000E-04     451.81536865
  1 16 114     458.81524658  1.15700000E-04     457.81524658
  1 16 115     469.78811646  1.15700000E-04     468.78811646
  1 16 116     483.66711426  1.15700000E-04     482.66711426
  1 16 117     500.54312134  1.15700000E-04     499.54312134
  1 16 118     511.89044189  1.15700000E-04     510.89044189
  1 17 102     593.73443604  1.15700000E-04     592.73443604
  1 17 103     590.81970215  1.15700000E-04     589.81970215
  1 17 106     529.67382812  1.15700000E-04     528.67382812
  1 17 107     509.22970581  1.15700000E-04     508.22970581
  1 17 108     492.26580811  1.15700000E-04     491.26580811
  1 17 109     478.76406860  1.15700000E-04     477.76406860
  1 17 110     479.09008789  1.15700000E-04     478.09008789
  1 17 118     503.83297729  1.15700000E-04     502.83297729
  1 17 119     523.82409668  1.15700000E-04     522.82409668
  1 18 101     600.60278320  1.15700000E-04     599.60278320
  1 18 102     592.79547119  1.15700000E-04     591.79547119
  1 18 118     487.47003174  1.15700000E-04     486.47003174
  1 18 119     515.15173340  1.15700000E-04     514.15173340
  1 19 100     603.04223633  1.15700000E-04     602.04223633
  1 19 101     591.45355225  1.15700000E-04     590.45355225
  1 19 102     597.83032227  1.15700000E-04     596.83032227
  1 19 119     495.99267578  1.15700000E-04     494.99267578
  1 20 100     592.86932373  1.15700000E-04     591.86932373
  1 20 101     597.44586182  1.15700000E-04     596.44586182
  1 20 119     488.50314331  1.15700000E-04     487.50314331
  1 21 100     599.09887695  1.15700000E-04     598.09887695
  1 21 101     581.09832764  1.15700000E-04     580.09832764
  1 21 102     562.18139648  1.15700000E-04     561.18139648
  1 21 119     480.62918091  1.15700000E-04     479.62918091
  1 21 120     503.74295044  1.15700000E-04     502.74295044
  1 22 101     565.61584473  1.15700000E-04     564.61584473
  1 22 102     542.16351318  1.15700000E-04     541.16351318
  1 22 119     471.03359985  1.15700000E-04     470.03359985
  1 22 120     493.19058228  1.15700000E-04     492.19058228
  1 23 101     546.23254395  1.15700000E-04     545.23254395
  1 23 102     524.82849121  1.15700000E-04     523.82849121
  1 23 103     505.53302002  1.15700000E-04     504.53302002
  1 23 119     465.62158203  1.15700000E-04     464.62158203
  1 23 120     485.11538696  1.15700000E-04     484.11538696
  1 24 102     510.73312378  1.15700000E-04     509.73312378
  1 24 103     490.52343750  1.15700000E-04     489.52343750
  1 24 119     458.63467407  1.15700000E-04     457.63467407
  1 24 120     484.65673828  1.15700000E-04     483.65673828
  1 24 121     493.36981201  1.15700000E-04     492.36981201
  1 25 102     497.10971069  1.15700000E-04     496.10971069
  1 25 103     476.69107056  1.15700000E-04     475.69107056
  1 25 104     459.21444702  1.15700000E-04     458.21444702
  1 25 121     491.26751709  1.15700000E-04     490.26751709
  1 25 122     502.27960205  1.15700000E-04     501.27960205
  1 25 123     511.09655762  1.15700000E-04     510.09655762
  1 26 102     483.11340332  1.15700000E-04     482.11340332
  1 26 103     459.82681274  1.15700000E-04     458.82681274
  1 26 104     443.18032837  1.15700000E-04     442.18032837
  1 26 122     495.62924194  1.15700000E-04     494.62924194
  1 26 123     513.43878174  1.15700000E-04     512.43878174
  1 27 103     443.73144531  1.15700000E-04     442.73144531
  1 27 104     426.24893188  1.15700000E-04     425.24893188
  1 27 123     509.71768188  1.15700000E-04     508.71768188
  1 28 103     434.10754395  1.15700000E-04     433.10754395
  1 28 104     411.24438477  1.15700000E-04     410.24438477
  1 28 123     510.07476807  1.15700000E-04     509.07476807
  1 29 103     424.78543091  1.15700000E-04     423.78543091
  1 29 104     402.67654419  1.15700000E-04     401.67654419
  1 29 122     497.99591064  1.15700000E-04     496.99591064
  1 29 123     511.16708374  1.15700000E-04     510.16708374
  1 30 103     415.33615112  1.15700000E-04     414.33615112
  1 30 104     410.65518188  1.15700000E-04     409.65518188
  1 30 122     491.63632202  1.15700000E-04     490.63632202
  1 30 123     512.83227539  1.15700000E-04     511.83224487
  1 30 124     520.33404541  1.15700000E-04     519.33404541
  1 30 129     565.25537109  1.15700000E-04     564.25537109
  1 30 130     576.43408203  1.15700000E-04     575.43408203
  1 30 131     584.95404053  1.15700000E-04     583.95404053
  1 30 132     591.51940918  1.15700000E-04     590.51940918
  1 30 133     598.87121582  1.15700000E-04     597.87121582
  1 31 103     415.85745239  1.15700000E-04     414.85745239
  1 31 104     412.90792847  1.15700000E-04     411.90792847
  1 31 123     520.11126709  1.15700000E-04     519.11126709
  1 31 124     529.27813721  1.15700000E-04     528.27813721
  1 31 125     534.25903320  1.15700000E-04     533.25903320
  1 31 126     541.86315918  1.15700000E-04     540.86315918
  1 31 127     550.50537109  1.15700000E-04     549.50537109
  1 31 128     559.58135986  1.15700000E-04     558.58135986
  1 31 129     567.32763672  1.15700000E-04     566.32763672
  1 31 130     576.52990723  1.15700000E-04     575.52990723
  1 31 131     585.81756592  1.15700000E-04     584.81756592
  1 31 132     594.33349609  1.15700000E-04     593.33349609
  1 31 133     602.83752441  1.15700000E-04     601.83752441
  1 31 134     605.67486572  1.15700000E-04     604.67486572
  1 32 102     423.31790161  1.15700000E-04     422.31790161
  1 32 103     415.62222290  1.15700000E-04     414.62222290
  1 32 104     409.10839844  1.15700000E-04     408.10839844
  1 32 134     605.79455566  1.15700000E-04     604.79455566
  1 32 135     609.42510986  1.15700000E-04     608.42510986
  1 32 136     613.82202148  1.15700000E-04     612.82202148
  1 33 101     444.04977417  1.15700000E-04     443.04977417
  1 33 102     428.68679810  1.15700000E-04     427.68679810
  1 33 104     413.38916016  1.15700000E-04     412.38916016
  1 33 135     611.24121094  1.15700000E-04     610.24121094
  1 33 136     618.45471191  1.15700000E-04     617.45471191
  1 33 137     624.08825684  1.15700000E-04     623.08825684
  1 34 101     441.99514771  1.15700000E-04     440.99514771
  1 34 103     414.82376099  1.15700000E-04     413.82376099
  1 34 104     415.07357788  1.15700000E-04     414.07357788
  1 34 136     616.62738037  1.15700000E-04     615.62738037
  1 34 137     619.91131592  1.15700000E-04     618.91131592
  1 35 101     436.22460938  1.15700000E-04     435.22460938
  1 35 103     417.01303101  1.15700000E-04     416.01303101
  1 35 136     613.83172607  1.15700000E-04     612.83172607
  1 35 137     622.97082520  1.15700000E-04     621.97082520
  1 36 101     434.17852783  1.15700000E-04     433.17852783
  1 36 103     419.27200317  1.15700000E-04     418.27200317
  1 36 136     617.16381836  1.15700000E-04     616.16381836
  1 36 137     622.84265137  1.15700000E-04     621.84265137
  1 37 101     436.59393311  1.15700000E-04     435.59393311
  1 37 103     421.98034668  1.15700000E-04     420.98034668
  1 37 136     621.36059570  1.15700000E-04     620.36059570
  1 37 137     622.22460938  1.15700000E-04     621.22460938
  1 38 101     431.98831177  1.15700000E-04     430.98831177
  1 38 103     427.73028564  1.15700000E-04     426.73028564
  1 38 136     620.56134033  1.15700000E-04     619.56134033
  1 38 137     622.68609619  1.15700000E-04     621.68609619
  1 38 138     624.72180176  1.15700000E-04     623.72180176
  1 38 139     629.07513428  1.15700000E-04     628.07513428
  1 38 140     629.09179688  1.15700000E-04     628.09179688
  1 39 101     428.58264160  1.15700000E-04     427.58264160
  1 39 102     422.82287598  1.15700000E-04     421.82287598
  1 39 103     426.85110474  1.15700000E-04     425.85110474
  1 39 137     623.95520020  1.15700000E-04     622.95520020
  1 39 138     627.79302979  1.15700000E-04     626.79302979
  1 39 139     629.14453125  1.15700000E-04     628.14453125
  1 39 140     635.58612061  1.15700000E-04     634.58612061
  1 39 141     640.91601562  1.15700000E-04     639.91601562
  1 39 142     645.01885986  1.15700000E-04     644.01885986
  1 39 143     643.50738525  1.15700000E-04     642.50738525
  1 39 144     644.22546387  1.15700000E-04     643.22546387
  1 39 145     638.86193848  1.15700000E-04     637.86193848
  1 39 146     642.30505371  1.15700000E-04     641.30505371
  1 39 147     642.67498779  1.15700000E-04     641.67498779
  1 40 100     421.76452637  1.15700000E-04     420.76452637
  1 40 101     421.67889404  1.15700000E-04     420.67889404
  1 40 102     430.41519165  1.15700000E-04     429.41519165
  1 40 146     652.29937744  1.15700000E-04     651.29937744
  1 40 147     648.26928711  1.15700000E-04     647.26928711
  1 40 148     646.64361572  1.15700000E-04     645.64361572
  1 40 149     645.51593018  1.15700000E-04     644.51593018
  1 40 150     647.47363281  1.15700000E-04     646.47363281
  1 40 151     650.02886963  1.15700000E-04     649.02886963
  1 40 152     652.53900146  1.15700000E-04     651.53900146
  1 40 153     653.48211670  1.15700000E-04     652.48211670
  1 40 154     640.75225830  1.15700000E-04     639.75225830
  1 41 99     416.64300537  1.15700000E-04     415.64300537
  1 41 100     418.03649902  1.15700000E-04     417.03649902
  1 41 101     423.53308105  1.15700000E-04     422.53308105
  1 41 149     667.86096191  1.15700000E-04     666.86096191
  1 41 150     654.71765137  1.15700000E-04     653.71765137
  1 41 151     662.80706787  1.15700000E-04     661.80706787
  1 41 153     655.15667725  1.15700000E-04     654.15667725
  1 41 154     656.13433838  1.15700000E-04     655.13433838
  1 41 155     654.71057129  1.15700000E-04     653.71057129
  1 42 98     409.44406128  1.15700000E-04     408.44406128
  1 42 99     409.97479248  1.15700000E-04     408.97479248
  1 42 100     422.82376099  1.15700000E-04     421.82376099
  1 42 154     651.48345947  1.15700000E-04     650.48345947
  1 42 155     657.72326660  1.15700000E-04     656.72326660
  1 43 95     416.94927979  1.15700000E-04     415.94927979
  1 43 96     410.26525879  1.15700000E-04     409.26525879
  1 43 97     405.44015503  1.15700000E-04     404.44015503
  1 43 98     404.83590698  1.15700000E-04     403.83590698
  1 43 155     656.48425293  1.15700000E-04     655.48425293
  1 43 156     658.83990479  1.15700000E-04     657.83990479
  1 44 93     429.27841187  1.15700000E-04     428.27841187
  1 44 94     417.94662476  1.15700000E-04     416.94662476
  1 44 95     408.66027832  1.15700000E-04     407.66027832
  1 44 96     402.48587036  1.15700000E-04     401.48587036
  1 44 155     651.25683594  1.15700000E-04     650.25683594
  1 44 156     657.55493164  1.15700000E-04     656.55493164
  1 45 92     445.75793457  1.15700000E-04     444.75793457
  1 45 93     428.23071289  1.15700000E-04     427.23071289
  1 45 94     414.42019653  1.15700000E-04     413.42019653
  1 45 156     645.22882080  1.15700000E-04     644.22882080
  1 45 157     653.41320801  1.15700000E-04     652.41320801
  1 46 91     463.72268677  1.15700000E-04     462.72268677
  1 46 92     441.58029175  1.15700000E-04     440.58029175
  1 46 93     424.03067017  1.15700000E-04     423.03067017
  1 46 157     652.90960693  1.15700000E-04     651.90960693
  1 46 158     653.82647705  1.15700000E-04     652.82647705
  1 47 90     471.31161499  1.15700000E-04     470.31161499
  1 47 91     449.63259888  1.15700000E-04     448.63259888
  1 47 92     430.76428223  1.15700000E-04     429.76428223
  1 47 158     662.89941406  1.15700000E-04     661.89941406
  1 47 159     666.84503174  1.15700000E-04     665.84503174
  1 47 160     655.69250488  1.15700000E-04     654.69250488
  1 48 89     480.49362183  1.15700000E-04     479.49362183
  1 48 90     463.03033447  1.15700000E-04     462.03033447
  1 48 91     443.63900757  1.15700000E-04     442.63900757
  1 48 159     661.07080078  1.15700000E-04     660.07080078
  1 48 160     664.79534912  1.15700000E-04     663.79534912
  1 48 161     664.91192627  1.15700000E-04     663.91192627
  1 49 89     473.64282227  1.15700000E-04     472.64282227
  1 49 90     455.93826294  1.15700000E-04     454.93826294
  1 49 160     668.46203613  1.15700000E-04     667.46203613
  1 49 161     669.50347900  1.15700000E-04     668.50347900
  1 49 162     665.21948242  1.15700000E-04     664.21948242
  1 49 163     666.44940186  1.15700000E-04     665.44940186
  1 50 88     490.89462280  1.15700000E-04     489.89462280
  1 50 89     480.13879395  1.15700000E-04     479.13879395
  1 50 90     458.24157715  1.15700000E-04     457.24157715
  1 50 162     678.68255615  1.15700000E-04     677.68255615
  1 50 163     676.05438232  1.15700000E-04     675.05438232
  1 50 164     682.95465088  1.15700000E-04     681.95465088
  1 51 88     451.38323975  1.15700000E-04     450.38323975
  1 51 89     448.00207520  1.15700000E-04     447.00207520
  1 51 90     450.72772217  1.15700000E-04     449.72772217
  1 51 91     441.17138672  1.15700000E-04     440.17138672
  1 52 87     446.28042603  1.15700000E-04     445.28042603
  1 52 88     444.34045410  1.15700000E-04     443.34045410
  1 52 89     441.25531006  1.15700000E-04     440.25531006
  1 52 91     427.27740479  1.15700000E-04     426.27740479
  1 52 92     427.27163696  1.15700000E-04     426.27163696
  1 52 93     423.74658203  1.15700000E-04     422.74658203
  1 53 87     444.49630737  1.15700000E-04     443.49630737
  1 53 88     440.09973145  1.15700000E-04     439.09973145
  1 53 93     419.46017456  1.15700000E-04     418.46017456
  1 53 94     418.32882690  1.15700000E-04     417.32882690
  1 53 112     499.29510498  1.15700000E-04     498.29510498
  1 53 113     507.21548462  1.15700000E-04     506.21548462
  1 53 114     516.97009277  1.15700000E-04     515.97009277
  1 53 115     524.19573975  1.15700000E-04     523.19573975
  1 54 87     434.96694946  1.15700000E-04     433.96694946
  1 54 88     437.25329590  1.15700000E-04     436.25329590
  1 54 94     412.94256592  1.15700000E-04     411.94256592
  1 54 110     489.09625244  1.15700000E-04     488.09625244
  1 54 111     509.29440308  1.15700000E-04     508.29440308
  1 54 112     508.75061035  1.15700000E-04     507.75061035
  1 54 115     530.71368408  1.15700000E-04     529.71368408
  1 54 116     542.49487305  1.15700000E-04     541.49487305
  1 55 86     440.78598022  1.15700000E-04     439.78598022
  1 55 87     428.14486694  1.15700000E-04     427.14486694
  1 55 94     410.12442017  1.15700000E-04     409.12442017
  1 55 95     416.63015747  1.15700000E-04     415.63015747
  1 55 107     473.32595825  1.15700000E-04     472.32595825
  1 55 108     501.50625610  1.15700000E-04     500.50625610
  1 55 109     517.99517822  1.15700000E-04     516.99517822
  1 55 110     506.63159180  1.15700000E-04     505.63159180
  1 56 84     485.51232910  1.15700000E-04     484.51232910
  1 56 85     454.95468140  1.15700000E-04     453.95468140
  1 56 86     439.22406006  1.15700000E-04     438.22406006
  1 56 87     430.21383667  1.15700000E-04     429.21383667
  1 56 95     415.63949585  1.15700000E-04     414.63949585
  1 56 96     415.26409912  1.15700000E-04     414.26409912
  1 56 97     418.89105225  1.15700000E-04     417.89105225
  1 56 105     489.24996948  1.15700000E-04     488.24996948
  1 56 106     482.72949219  1.15700000E-04     481.72949219
  1 56 107     482.21670532  1.15700000E-04     481.21670532
  1 57 82     534.52697754  1.15700000E-04     533.52697754
  1 57 83     506.14157104  1.15700000E-04     505.14157104
  1 57 84     482.78335571  1.15700000E-04     481.78335571
  1 57 85     451.57138062  1.15700000E-04     450.57138062
  1 57 86     438.38485718  1.15700000E-04     437.38485718
  1 57 97     425.98187256  1.15700000E-04     424.98187256
  1 57 98     432.49426270  1.15700000E-04     431.49426270
  1 57 99     425.22827148  1.15700000E-04     424.22827148
  1 57 100     439.67028809  1.15700000E-04     438.67028809
  1 57 103     455.89578247  1.15700000E-04     454.89578247
  1 57 104     482.89291382  1.15700000E-04     481.89291382
  1 57 105     482.83825684  1.15700000E-04     481.83825684
  1 58 81     529.23120117  1.15700000E-04     528.23120117
  1 58 82     518.82965088  1.15700000E-04     517.82965088
  1 58 83     489.32882690  1.15700000E-04     488.32882690
  1 58 84     469.32235718  1.15700000E-04     468.32235718
  1 58 98     437.19842529  1.15700000E-04     436.19842529
  1 58 100     463.70101929  1.15700000E-04     462.70101929
  1 58 101     465.25994873  1.15700000E-04     464.25994873
  1 58 102     472.27737427  1.15700000E-04     471.27737427
  1 58 103     491.81072998  1.15700000E-04     490.81072998
  1 59 80     554.79266357  1.15700000E-04     553.79266357
  1 59 81     525.96124268  1.15700000E-04     524.96124268
  1 59 82     497.18804932  1.15700000E-04     496.18804932
  1 59 84     456.91796875  1.15700000E-04     455.91796875
  1 59 98     436.85440063  1.15700000E-04     435.85440063
  1 59 99     444.73171997  1.15700000E-04     443.73171997
  1 59 100     440.30227661  1.15700000E-04     439.30227661
  1 60 79     582.06646729  1.15700000E-04     581.06646729
  1 60 80     551.97930908  1.15700000E-04     550.97930908
  1 60 82     488.66265869  1.15700000E-04     487.66265869
  1 60 84     447.43789673  1.15700000E-04     446.43789673
  1 60 98     442.99877930  1.15700000E-04     441.99877930
  1 60 100     461.88906860  1.15700000E-04     460.88906860
  1 60 101     464.62969971  1.15700000E-04     463.62969971
  1 60 102     472.01293945  1.15700000E-04     471.01293945
  1 60 103     476.86846924  1.15700000E-04     475.86846924
  1 61 78     602.51196289  1.15700000E-04     601.51196289
  1 61 79     573.85668945  1.15700000E-04     572.85668945
  1 61 82     486.64306641  1.15700000E-04     485.64306641
  1 61 84     443.13760376  1.15700000E-04     442.13760376
  1 61 98     469.78750610  1.15700000E-04     468.78750610
  1 61 103     483.11715698  1.15700000E-04     482.11715698
  1 61 104     489.57949829  1.15700000E-04     488.57949829
  1 62 78     604.21051025  1.15700000E-04     603.21051025
  1 62 81     508.78549194  1.15700000E-04     507.78549194
  1 62 82     487.88851929  1.15700000E-04     486.88851929
  1 62 84     438.58758545  1.15700000E-04     437.58758545
  1 62 85     425.57479858  1.15700000E-04     424.57479858
  1 62 97     441.05688477  1.15700000E-04     440.05688477
  1 62 98     488.60354614  1.15700000E-04     487.60354614
  1 62 104     505.93743896  1.15700000E-04     504.93743896
  1 63 78     584.37091064  1.15700000E-04     583.37091064
  1 63 80     522.38739014  1.15700000E-04     521.38739014
  1 63 81     500.69192505  1.15700000E-04     499.69192505
  1 63 85     429.25552368  1.15700000E-04     428.25552368
  1 63 86     419.97738647  1.15700000E-04     418.97738647
  1 63 97     473.91967773  1.15700000E-04     472.91967773
  1 63 104     504.46801758  1.15700000E-04     503.46801758
  1 63 105     510.68975830  1.15700000E-04     509.68975830
  1 64 77     600.52062988  1.15700000E-04     599.52062988
  1 64 78     575.21630859  1.15700000E-04     574.21630859
  1 64 79     541.87219238  1.15700000E-04     540.87219238
  1 64 80     515.49078369  1.15700000E-04     514.49078369
  1 64 84     433.13745117  1.15700000E-04     432.13745117
  1 64 85     431.61596680  1.15700000E-04     430.61596680
  1 64 86     416.86639404  1.15700000E-04     415.86639404
  1 64 87     414.16049194  1.15700000E-04     413.16049194
  1 64 97     481.39572144  1.15700000E-04     480.39572144
  1 64 105     522.19830322  1.15700000E-04     521.19830322
  1 64 106     521.91149902  1.15700000E-04     520.91149902
  1 65 77     566.23736572  1.15700000E-04     565.23736572
  1 65 78     543.54638672  1.15700000E-04     542.54638672
  1 65 79     515.44097900  1.15700000E-04     514.44097900
  1 65 84     435.55187988  1.15700000E-04     434.55187988
  1 65 85     424.09545898  1.15700000E-04     423.09545898
  1 65 87     417.62429810  1.15700000E-04     416.62429810
  1 65 88     419.42831421  1.15700000E-04     418.42831421
  1 65 106     526.53216553  1.15700000E-04     525.53216553
  1 65 107     535.81945801  1.15700000E-04     534.81945801
  1 65 108     529.80181885  1.15700000E-04     528.80181885
  1 66 76     565.02252197  1.15700000E-04     564.02252197
  1 66 77     545.54901123  1.15700000E-04     544.54901123
  1 66 78     524.60583496  1.15700000E-04     523.60583496
  1 66 85     419.83047485  1.15700000E-04     418.83047485
  1 66 88     430.09829712  1.15700000E-04     429.09829712
  1 66 89     438.50796509  1.15700000E-04     437.50796509
  1 66 107     534.27532959  1.15700000E-04     533.27532959
  1 66 108     555.19830322  1.15700000E-04     554.19830322
  1 66 109     543.25958252  1.15700000E-04     542.25958252
  1 66 110     569.79711914  1.15700000E-04     568.79711914
  1 67 76     548.92138672  1.15700000E-04     547.92138672
  1 67 77     532.50299072  1.15700000E-04     531.50299072
  1 67 78     520.31140137  1.15700000E-04     519.31140137
  1 67 85     429.34881592  1.15700000E-04     428.34881592
  1 67 86     418.31997681  1.15700000E-04     417.31997681
  1 67 89     443.41036987  1.15700000E-04     442.41036987
  1 67 90     452.26910400  1.15700000E-04     451.26910400
  1 67 91     453.55804443  1.15700000E-04     452.55804443
  1 67 110     562.00280762  1.15700000E-04     561.00280762
  1 68 75     538.93469238  1.15700000E-04     537.93469238
  1 68 76     535.03375244  1.15700000E-04     534.03375244
  1 68 77     529.64508057  1.15700000E-04     528.64508057
  1 68 86     419.31436157  1.15700000E-04     418.31436157
  1 68 87     437.37805176  1.15700000E-04     436.37805176
  1 68 110     560.39508057  1.15700000E-04     559.39508057
  1 68 111     582.95123291  1.15700000E-04     581.95123291
  1 68 112     580.56549072  1.15700000E-04     579.56549072
  1 69 75     539.98522949  1.15700000E-04     538.98522949
  1 69 76     541.15856934  1.15700000E-04     540.15856934
  1 69 77     539.30487061  1.15700000E-04     538.30487061
  1 69 87     463.58660889  1.15700000E-04     462.58660889
  1 69 88     461.47109985  1.15700000E-04     460.47109985
  1 69 112     584.42639160  1.15700000E-04     583.42639160
  1 69 113     590.60998535  1.15700000E-04     589.60998535
  1 69 114     604.53778076  1.15700000E-04     603.53778076
  1 69 115     596.33795166  1.15700000E-04     595.33795166
  1 70 75     544.49645996  1.15700000E-04     543.49645996
  1 70 76     543.56591797  1.15700000E-04     542.56591797
  1 70 88     499.29483032  1.15700000E-04     498.29483032
  1 70 89     485.07745361  1.15700000E-04     484.07745361
  1 70 115     602.47802734  1.15700000E-04     601.47802734
  1 70 116     601.38421631  1.15700000E-04     600.38421631
  1 70 117     619.33697510  1.15700000E-04     618.33697510
  1 71 74     549.31384277  1.15700000E-04     548.31384277
  1 71 75     567.03253174  1.15700000E-04     566.03253174
  1 71 89     518.04431152  1.15700000E-04     517.04431152
  1 71 90     510.27731323  1.15700000E-04     509.27731323
  1 71 93     506.64038086  1.15700000E-04     505.64038086
  1 71 94     499.91735840  1.15700000E-04     498.91735840
  1 71 117     612.15490723  1.15700000E-04     611.15490723
  1 72 74     572.01684570  1.15700000E-04     571.01684570
  1 72 75     573.37927246  1.15700000E-04     572.37927246
  1 72 90     536.79412842  1.15700000E-04     535.79412842
  1 72 91     544.38409424  1.15700000E-04     543.38409424
  1 72 92     527.65173340  1.15700000E-04     526.65173340
  1 72 93     528.10797119  1.15700000E-04     527.10797119
  1 72 94     518.56323242  1.15700000E-04     517.56323242
  1 72 95     516.87390137  1.15700000E-04     515.87390137
  1 72 96     519.97924805  1.15700000E-04     518.97924805
  1 72 117     623.06707764  1.15700000E-04     622.06707764
  1 72 118     623.53887939  1.15700000E-04     622.53887939
  1 73 74     587.36456299  1.15700000E-04     586.36456299
  1 73 75     584.80383301  1.15700000E-04     583.80383301
  1 73 96     536.70043945  1.15700000E-04     535.70043945
  1 73 97     532.67315674  1.15700000E-04     531.67315674
  1 73 98     530.39666748  1.15700000E-04     529.39666748
  1 73 118     622.97863770  1.15700000E-04     621.97863770
  1 73 119     629.95172119  1.15700000E-04     628.95172119
  1 74 74     636.41857910  1.15700000E-04     635.41857910
  1 74 75     628.50616455  1.15700000E-04     627.50616455