# File generated by Flopy version 3.3.2 on 12/27/2020 at 17:59:28.
BEGIN options
  PRINT_OPTION  all
  COMPLEXITY  moderate
END options

BEGIN nonlinear
  UNDER_RELAXATION  dbd
END nonlinear

BEGIN linear
  LINEAR_ACCELERATION  bicgstab
END linear

