# File generated by Flopy version 3.3.2 on 12/27/2020 at 18:00:04.
BEGIN options
  PRINT_INPUT
END options

BEGIN continuous  FILEOUT  heads.csv
  2_70_121  HEAD  2 71 122
  2_75_141  HEAD  2 76 142
  2_77_125  HEAD  2 78 126
  2_78_128  HEAD  2 79 129
  2_78_158  HEAD  2 79 159
  2_82_179  HEAD  2 83 180
  2_84_129  HEAD  2 85 130
  2_85_148  HEAD  2 86 149
  2_86_135  HEAD  2 87 136
  2_86_169  HEAD  2 87 170
  2_89_124  HEAD  2 90 125
  2_89_128  HEAD  2 90 129
  2_93_125  HEAD  2 94 126
  2_94_133  HEAD  2 95 134
  2_96_176  HEAD  2 97 177
  2_102_127  HEAD  2 103 128
  2_105_123  HEAD  2 106 124
  2_106_128  HEAD  2 107 129
  2_107_179  HEAD  2 108 180
  2_117_125  HEAD  2 118 126
  2_118_136  HEAD  2 119 137
  2_126_131  HEAD  2 127 132
  2_130_139  HEAD  2 131 140
  2_131_145  HEAD  2 132 146
  2_132_151  HEAD  2 133 152
  2_132_159  HEAD  2 133 160
  2_135_130  HEAD  2 136 131
  2_135_148  HEAD  2 136 149
  2_152_147  HEAD  2 153 148
  2_160_164  HEAD  2 161 165
  2_161_150  HEAD  2 162 151
  4_55_147  HEAD  4 56 148
  4_78_123  HEAD  4 79 124
END continuous  FILEOUT  heads.csv

