# File generated by Flopy version 3.3.2 on 12/27/2020 at 17:59:28.
BEGIN options
  PRINT_FLOWS
  SAVE_FLOWS
  NEWTON
END options

BEGIN packages
  DIS6  mf6model.dis  dis
  IC6  mf6model.ic  ic
  NPF6  mf6model.npf  npf
  CHD6  mf6model.chd  chd
  RIV6  mf6model.riv  riv
  OBS6  mf6model.obs  head_obs
  OC6  mf6model.oc  oc
END packages

