# File generated by Flopy version 3.3.2 on 12/27/2020 at 18:00:03.
BEGIN options
  SAVE_FLOWS
END options

BEGIN dimensions
  MAXBOUND  375
END dimensions

BEGIN period  1
  2 75 176    1020.29600000
  2 76 176    1020.90200000
  2 76 177    1021.69000000
  2 77 177    1022.44600000
  2 77 178    1023.30700000
  2 78 178    1024.22900000
  2 79 178    1025.05300000
  2 79 179    1025.95000000
  2 80 179    1026.74500000
  2 80 180    1027.58800000
  2 81 180    1028.39800000
  2 82 180    1029.06600000
  2 82 181    1029.94300000
  2 83 181    1030.87500000
  2 84 181    1032.18900000
  2 85 180    1033.56500000
  2 86 180    1034.34300000
  2 87 179    1036.17000000
  2 87 180    1035.25500000
  2 88 179    1037.03900000
  2 89 179    1037.89300000
  2 90 179    1038.74800000
  2 91 179    1039.17500000
  2 92 179    1039.47200000
  2 93 179    1039.20200000
  2 93 180    1038.50600000
  2 93 181    1037.79900000
  2 94 181    1037.06500000
  2 94 182    1036.39800000
  2 95 182    1035.63200000
  2 95 183    1034.91800000
  2 96 183    1034.15300000
  2 96 184    1033.28400000
  2 97 184    1032.50600000
  2 98 184    1031.69500000
  2 99 184    1030.88400000
  2 100 184    1030.15700000
  2 100 185    1029.34100000
  2 101 185    1028.48000000
  2 102 185    1027.29500000
  2 103 184    1026.20400000
  2 104 184    1025.56300000
  2 105 183    1023.92000000
  2 105 184    1024.79100000
  2 106 183    1023.19500000
  2 107 183    1022.38400000
  2 108 183    1021.57400000
  2 109 183    1020.76300000
  2 110 183    1020.17900000
  4 1 146     830.87023440
  4 2 145     830.87081557
  4 3 144     829.99999952
  4 3 145     830.63276325
  4 4 144     830.00000006
  4 5 144     825.99782912
  4 6 144     822.64442045
  4 7 143     814.01977389
  4 7 144     818.40652177
  4 8 143     808.21296693
  4 9 143     799.95435503
  4 10 143     794.87395784
  4 11 143     768.53577381
  4 11 144     790.79705986
  4 12 144     785.26173691
  4 13 144     789.97233290
  4 14 144     782.77238288
  4 15 144     784.80785846
  4 15 145     790.56816728
  4 16 145     795.59673112
  4 16 146     811.60881434
  4 17 146     809.39677177
  4 18 146     810.17618488
  4 18 147     830.00000004
  4 19 147     820.92337847
  4 20 147     818.78619527
  4 20 148     814.18700922
  4 21 148     803.86297202
  4 21 149     799.31891696
  4 22 149     785.57858165
  4 23 149     775.41849496
  4 23 150     766.28003000
  4 24 150     761.01230604
  4 24 151     780.95842351
  4 25 151     778.21184977
  4 26 151     760.02240543
  4 26 152     749.36848852
  4 27 152     720.22744272
  4 28 152     709.92452644
  4 29 151     698.96820578
  4 29 152     730.81890842
  4 30 151     722.71733856
  4 31 151     715.77677715
  4 32 151     685.10709917
  4 33 151     683.17249322
  4 34 151     698.24129268
  4 34 152     719.15004049
  4 35 152     753.05856551
  4 35 153     760.47738422
  4 36 153     739.80108303
  4 37 153     717.17995735
  4 37 154     743.45938971
  4 38 154     730.97966320
  4 38 155     747.78344823
  4 39 155     710.62546264
  4 40 155     709.43480780
  4 40 156     724.71037423
  4 41 156     681.56067484
  4 42 156     670.81184460
  4 42 157     678.00894610
  4 43 157     672.64034971
  4 43 158     679.34858766
  4 44 158     670.40857909
  4 44 159     695.74157389
  4 45 159     681.22993752
  4 45 160     706.72561722
  4 46 160     695.19669363
  4 47 160     683.58241323
  4 47 161     711.95910187
  4 48 161     669.40634751
  4 48 162     677.28776616
  4 49 162     669.26296528
  4 49 163     670.02386576
  4 50 163     676.29442930
  4 50 164     674.82108914
  4 51 164     678.68480740
  4 51 165     683.03796944
  4 52 165     711.82677540
  4 52 166     699.07474440
  4 53 166     718.33250024
  4 53 167     725.20071393
  4 54 167     718.95519924
  4 54 168     753.39535807
  4 55 168     752.35414131
  4 56 168     755.29252547
  4 56 169     786.34256423
  4 57 169     784.74719968
  4 57 170     811.23685967
  4 58 170     809.66366204
  4 59 170     803.53525599
  4 59 171     826.80793242
  4 60 171     807.36085355
  4 61 171     785.83111280
  4 61 172     810.35876123
  4 62 172     788.99636727
  4 62 173     809.70267669
  4 63 173     798.39229398
  4 64 173     809.44942840
  4 64 174     801.87611972
  4 65 174     830.68457192
  4 66 174     851.66565444
  4 66 175     838.80000980
  4 67 175     848.09422099
  4 68 175     864.38486072
  4 69 175     880.71189963
  4 70 175     888.27271891
  4 71 175     907.28945181
  4 71 176     909.16803092
  4 72 176     932.84132528
  4 73 176     948.12617549
  4 74 176     983.44572520
  4 75 176    1006.51615730
  4 75 177    1003.78293390
  4 76 176    1008.76028286
  4 76 177    1005.11676975
  4 76 178    1001.16094710
  4 77 177    1005.50537139
  4 77 178    1001.73882865
  4 78 178    1004.83269047
  4 78 179    1002.41898084
  4 79 178    1005.32543979
  4 79 179    1002.91652128
  4 80 179    1003.38664307
  4 80 180    1003.36551392
  4 81 180    1003.74869706
  4 81 181    1003.63739240
  4 82 180    1004.08928192
  4 82 181    1003.92952361
  4 83 180    1005.13664187
  4 83 181    1004.03251952
  4 84 180    1005.22978310
  4 84 181    1004.60046626
  4 85 180    1005.80341562
  4 86 180    1005.67361400
  4 87 179    1005.38974447
  4 87 180    1004.96838252
  4 88 179    1005.13210301
  4 88 180    1004.77293378
  4 89 179    1004.87545417
  4 89 180    1004.50879200
  4 90 179    1004.55712889
  4 91 179    1004.17023640
  4 91 180    1003.71728079
  4 92 179    1003.70051780
  4 92 180    1003.20201531
  4 93 179    1002.72360027
  4 93 180    1002.07905991
  4 93 181    1001.36646365
  4 94 181    1000.57335880
  4 94 182     999.53249713
  4 94 183     998.80447583
  4 95 182     998.47126161
  4 95 183     997.72638259
  4 95 184     996.69293018
  4 96 183     996.43462147
  4 96 184     995.41437320
  4 97 184     993.89966926
  4 98 184     992.24020735
  4 98 185     991.40309411
  4 99 184     990.40814986
  4 99 185     989.65656273
  4 100 184     988.42541330
  4 100 185     987.77363173
  4 100 186     986.58291953
  4 101 184     986.31664631
  4 101 185     985.77361457
  4 102 184     984.10601155
  4 102 185     983.67648531
  4 103 184     981.81534769
  4 104 184     979.45125870
  4 105 183     977.22130834
  4 105 184     977.05384262
  4 106 183     974.67604689
  4 106 184     974.62523256
  4 107 183     972.10933074
  4 108 183     969.53013855
  4 109 183     966.94677781
  4 109 184     967.26923847
  4 110 183     964.36002450
  4 110 184     964.83085149
  4 111 184     962.41967726
  4 112 184     960.05147314
  4 113 184     957.74679015
  4 114 184     955.53394214
  4 114 185     956.74711198
  4 115 185     954.90506210
  4 116 185     951.51804910
  4 117 185     950.25915306
  4 118 185     949.41362811
  4 118 186     952.42362005
  4 119 186     952.10594826
  4 120 186     952.23915982
  4 120 187     954.55771657
  4 121 187     955.07572400
  4 122 187     955.95371471
  4 122 188     955.91712188
  4 123 188     957.07850320
  4 123 189     958.07785592
  4 123 190     958.82684940
  4 124 190     959.79508150
  4 125 190     960.98102605
  4 125 191     961.18945257
  4 126 191     962.12677986
  4 126 192     965.98087836
  4 127 192     966.82869401
  4 127 193     967.61339242
  4 128 193     969.23218510
  4 129 193     969.11363529
  4 129 194     975.16878409
  4 130 194     976.01830638
  4 130 195     977.02799682
  4 131 195     974.92830290
  4 131 196     975.58321097
  4 132 196     975.53437192
  4 133 196     975.86536331
  4 134 196     976.28280508
  4 135 196    1003.92216708
  4 135 197    1004.38588208
  4 136 197     977.83672485
  4 137 197     982.40065501
  4 138 197     966.53399453
  4 139 197     966.73590067
  4 139 198     968.33317271
  4 140 198     968.06255053
  4 141 198     967.02943570
  4 141 199     969.45655404
  4 142 199     969.48739413
  4 142 200     976.29812733
  4 143 200     973.29102184
  4 143 201     977.48103986
  4 144 201     977.38962078
  4 144 202     980.05334107
  4 145 202     980.46680343
  4 146 202     983.01075476
  4 146 203     985.41065645
  4 147 203     989.56776643
  4 147 204     997.68229187
  4 148 204     989.35263693
  4 148 205     991.07601434
  4 148 206     992.30077666
  4 149 206     994.94476194
  4 149 207     997.31521745
  4 150 207    1000.11848951
  4 151 207    1002.11573049
  4 151 208    1001.47582729
  4 152 208    1003.19360368
  4 153 208    1006.75769976
  4 153 209    1006.69096125
  4 154 209    1008.32249728
  4 155 209    1009.72293967
  4 155 210    1009.25691275
  4 156 210    1009.89396081
  4 157 210    1008.09910625
  4 157 211    1008.34170390
  4 157 212    1008.38343046
  4 158 212    1005.79002668
  4 158 213    1009.94858469
  4 159 213    1011.98972883
  4 160 213    1009.59527683
  4 160 214    1000.48699990
  4 161 214     998.74132410
  4 161 215    1005.87914461
  4 162 215     990.52492219
  4 162 216    1008.79728075
  4 163 216     999.53886894
  4 163 217    1023.23727050
  4 164 217    1026.78678271
  4 165 217    1006.02171033
  4 165 218    1009.93005146
  4 166 218    1003.23022734
  4 166 219     994.23135838
  4 167 219    1002.09280337
  4 168 219     989.86319706
  4 168 220    1009.97443751
  4 169 220    1010.24198586
  4 170 220    1009.80478822
  4 170 221     996.28870802
  4 171 221     991.73700488
  4 172 221     995.28709412
  4 172 222    1020.07438216
  4 173 222    1008.12211004
  4 173 223    1027.18404797
  4 174 223    1000.25798805
  4 175 223     991.07731275
  4 175 224     976.27651300
  4 176 224     970.76926455
  4 176 225     990.91022040
  4 177 225     979.56828262
  4 178 225     970.58947111
  4 178 226     998.37968542
  4 179 226     980.65099998
  4 179 227    1009.30403932
  4 180 227    1001.98735058
  4 180 228    1037.49317070
  4 181 228    1024.21005873
  4 181 229    1043.40005406
  4 182 229    1040.29951458
  4 182 230    1011.22598270
  4 183 230    1007.27251990
  4 184 230    1010.96187728
  4 184 231    1042.39746294
  4 185 231    1032.33155630
  4 186 231    1019.26873612
  4 186 232    1020.28715367
  4 187 232     991.13948911
  4 187 233    1016.22567583
  4 188 233    1022.92902585
  4 188 234    1039.85491402
  4 189 234    1019.51958409
  4 190 234     998.26194248
  4 190 235    1013.88461592
  4 191 235     990.97712077
  4 192 235     977.54500800
  4 192 236     968.89726098
  4 193 236     959.30785757
  4 194 236     959.24147607
  4 194 237     978.40096526
  4 195 237     971.44893313
  4 196 237     974.84255088
  4 196 238     979.98163911
  4 197 238     981.18980895
  4 198 238     981.62196295
  4 198 239     987.68823043
  4 199 239     993.98173104
  4 200 239     990.93974456
  4 200 240    1020.83856233
END period  1

