# File generated by Flopy version 3.3.2 on 12/27/2020 at 17:59:28.
BEGIN options
END options

BEGIN timing
  TDIS6  mf6model.tdis
END timing

BEGIN models
  gwf6  mf6model.nam  mf6model
END models

BEGIN exchanges
END exchanges

BEGIN solutiongroup  1
  ims6  mf6model.ims  mf6model
END solutiongroup  1

